@<TRIPOS>MOLECULE
*****
 28 29 0 0 0
SMALL
GASTEIGER

@<TRIPOS>ATOM
      1 N2000           -5.5598   -2.5971    0.5926 n  1  UNL1    -0.8004
      2 C2000           4.224   2.6958    5.4732 c  1  UNL1    0.2702
      3 O           0.3673   0.0745    1.1114 o  1  UNL1    -0.5255
      4 C           0.162   0.0453    2.3195 c  1  UNL1    0.5056
      5 N           -0.9046   -0.5512    2.9701 n  1  UNL1    -0.7051
      6 C1           -2.0119   -1.1637    2.3447 ca  1  UNL1    0.2847
      7 C2           -2.1336   -1.282    0.9614 ca  1  UNL1    -0.1359
      8 C3           -3.2941   -1.7992    0.3874 ca  1  UNL1    -0.164
      9 C4           -4.3389   -2.2607    1.1829 ca  1  UNL1    0.2878
      10 C5           -4.2219   -2.1435    2.5696 ca  1  UNL1    -0.1622
      11 C6           -3.0577   -1.6231    3.1516 ca  1  UNL1    -0.1629
      12 C7           1.172   0.7035    3.181 ca  1  UNL1    -0.0434
      13 C8           2.4911   0.7385    2.7107 ca  1  UNL1    -0.073
      14 C9           3.4876   1.3787    3.446 ca  1  UNL1    -0.1135
      15 C10           3.1753   1.9997    4.6614 ca  1  UNL1    0.0058
      16 O1           3.8604   3.2134    6.5249 o  1  UNL1    -0.4764
      17 C12           1.842   1.9754    5.1234 ca  1  UNL1    -0.0817
      18 C13           0.8436   1.3365    4.384 ca  1  UNL1    -0.1004
      19 H           -0.9196   -0.5369    3.981 hn  1  UNL1    0.31233
      20 H1           -1.3553   -0.9547    0.2822 ha  1  UNL1    0.22553
      21 H2           -3.3699   -1.8175    -0.6961 ha  1  UNL1    0.19193
      22 H3           -5.473   -2.9124    -0.3689 hn  1  UNL1    0.33023
      23 H5           -5.048   -2.4379    3.2112 ha  1  UNL1    0.18823
      24 H6           -3.0071   -1.5488    4.2343 ha  1  UNL1    0.18553
      25 H7           2.7429   0.2743    1.758 ha  1  UNL1    0.19553
      26 H8           4.4932   1.3838    3.0364 ha  1  UNL1    0.18303
      27 H9           1.5762   2.4747    6.054 ha  1  UNL1    0.20153
      28 H10           -0.1828   1.3785    4.7386 ha  1  UNL1    0.17643
@<TRIPOS>BOND
     1    3    4    2
     2    4    5    1
     3    5    6    1
     4    6    7    ar
     5    7    8    ar
     6    8    9    ar
     7    9    1    1
     8    9    10    ar
     9    10    11    ar
     10    6    11    ar
     11    4    12    1
     12    12    13    ar
     13    13    14    ar
     14    14    15    ar
     15    15    2    1
     16    2    16    1
     17    15    17    2
     18    17    18    ar
     19    12    18    ar
     20    5    19    ar
     21    7    20    1
     22    8    21    1
     23    1    22    1
     24    10    23    1
     25    11    24    1
     26    13    25    1
     27    14    26    1
     28    17    27    1
     29    18    28    1
@<TRIPOS>SUBSTRUCTURE
      1 ***         1 TEMP              0 ****  ****    0 ROOT
