@<TRIPOS>MOLECULE
*****
   29    30     1     0     0
SMALL
No Charge or Current Charge


@<TRIPOS>ATOM
      1 C            9.4800     4.3690    -2.2720 c          1 UNL       0.278900
      2 O            9.2880     5.3900    -1.6120 o          1 UNL      -0.472900
      3 Cl          10.7640     4.2150    -3.4490 cl         1 UNL      -0.018700
      4 C1           8.5360     3.2410    -2.0350 ca         1 UNL      -0.031700
      5 C2           8.6560     2.0300    -2.7040 ca         1 UNL       0.064300
      6 N            7.8130     0.9860    -2.5230 nb         1 UNL      -0.353200
      7 C3           6.8010     1.1580    -1.6360 ca         1 UNL       0.098700
      8 C4           6.5840     2.3330    -0.9200 ca         1 UNL      -0.082000
      9 C5           5.4330     2.3720     0.0170 c          1 UNL       0.518700
     10 O1           5.0120     1.2970     0.4280 o          1 UNL      -0.520100
     11 N1           4.9140     3.6240     0.3110 n          1 UNL      -0.696000
     12 C6           3.7890     3.9010     1.1250 ca         1 UNL       0.286100
     13 C7           3.0620     2.9280     1.8100 ca         1 UNL      -0.131600
     14 C8           1.9230     3.2750     2.5500 ca         1 UNL      -0.159300
     15 C9           1.5170     4.6030     2.6630 ca         1 UNL       0.289700
     16 N2           0.2940     4.9160     3.2660 nh         1 UNL      -0.793200
     17 C10          2.2270     5.5730     1.9570 ca         1 UNL      -0.157100
     18 C11          3.3650     5.2310     1.2120 ca         1 UNL      -0.155200
     19 C12          7.4810     3.3860    -1.1170 ca         1 UNL      -0.059600
     20 H            9.4450     1.8280    -3.4230 h4         1 UNL       0.151100
     21 H1           6.1480     0.2950    -1.5200 h4         1 UNL       0.166500
     22 H2           5.3080     4.4280    -0.1570 hn         1 UNL       0.291400
     23 H3           3.3330     1.8780     1.7780 ha         1 UNL       0.199900
     24 H4           1.3550     2.4830     3.0310 ha         1 UNL       0.168300
     25 H5          -0.0030     4.2460     3.9690 hn         1 UNL       0.306200
     26 H6           0.2230     5.8750     3.5900 hn         1 UNL       0.306200
     27 H7           1.8950     6.6080     1.9690 ha         1 UNL       0.165400
     28 H8           3.8900     6.0230     0.6850 ha         1 UNL       0.164500
     29 H9           7.3920     4.3090    -0.5510 ha         1 UNL       0.174900
@<TRIPOS>BOND
     1     1     2 2   
     2     1     3 1   
     3     1     4 1   
     4     4     5 ar  
     5     5     6 ar  
     6     6     7 ar  
     7     7     8 ar  
     8     8     9 1   
     9     9    10 2   
    10     9    11 1   
    11    11    12 1   
    12    12    13 ar  
    13    13    14 ar  
    14    14    15 ar  
    15    15    16 1   
    16    15    17 ar  
    17    17    18 ar  
    18    12    18 ar  
    19     8    19 ar  
    20     4    19 ar  
    21     5    20 1   
    22     7    21 1   
    23    11    22 1   
    24    13    23 1   
    25    14    24 1   
    26    16    25 1   
    27    16    26 1   
    28    17    27 1   
    29    18    28 1   
    30    19    29 1   
@<TRIPOS>SUBSTRUCTURE
     1 UNL         1 TEMP              0 ****  ****    0 ROOT
