@<TRIPOS>MOLECULE
*****
 29 30 0 0 0
SMALL
GASTEIGER

@<TRIPOS>ATOM
      1 C           9.4802    4.3686   -2.2718 C.2     1  UNL1        0.2789
      2 O           9.2884    5.3898   -1.6124 O.2     1  UNL1       -0.4729
      3 CL         10.7635    4.2147   -3.4485 Cl      1  UNL1       -0.0187
      4 C           8.5361    3.2406   -2.0346 C.ar    1  UNL1       -0.0317
      5 C           8.6564    2.0295   -2.7036 C.ar    1  UNL1        0.0643
      6 N           7.8128    0.9859   -2.5234 N.ar    1  UNL1       -0.3532
      7 C           6.8014    1.1582   -1.6358 C.ar    1  UNL1        0.0987
      8 C           6.5843    2.3325   -0.9203 C.ar    1  UNL1       -0.0820
      9 C           5.4333    2.3721    0.0172 C.2     1  UNL1        0.5187
     10 O           5.0122    1.2969    0.4280 O.2     1  UNL1       -0.5201
     11 N           4.9144    3.6240    0.3113 N.am    1  UNL1       -0.6960
     12 C           3.7889    3.9005    1.1246 C.ar    1  UNL1        0.2861
     13 C           3.0620    2.9282    1.8104 C.ar    1  UNL1       -0.1316
     14 C           1.9232    3.2748    2.5497 C.ar    1  UNL1       -0.1593
     15 C           1.5166    4.6031    2.6631 C.ar    1  UNL1        0.2897
     16 N           0.2940    4.9162    3.2656 N.pl3   1  UNL1       -0.7932
     17 C           2.2271    5.5734    1.9569 C.ar    1  UNL1       -0.1571
     18 C           3.3649    5.2315    1.2119 C.ar    1  UNL1       -0.1552
     19 C           7.4814    3.3858   -1.1168 C.ar    1  UNL1       -0.0596
     20 H           9.4450    1.8276   -3.4230 H       1  UNL1        0.1511
     21 H           6.1476    0.2954   -1.5195 H       1  UNL1        0.1665
     22 H           5.3078    4.4279   -0.1572 H       1  UNL1        0.2914
     23 H           3.3327    1.8782    1.7785 H       1  UNL1        0.1999
     24 H           1.3545    2.4834    3.0312 H       1  UNL1        0.1683
     25 H          -0.0028    4.2462    3.9685 H       1  UNL1        0.3062
     26 H           0.2227    5.8747    3.5899 H       1  UNL1        0.3062
     27 H           1.8946    6.6080    1.9692 H       1  UNL1        0.1654
     28 H           3.8903    6.0228    0.6847 H       1  UNL1        0.1645
     29 H           7.3920    4.3095   -0.5509 H       1  UNL1        0.1749
@<TRIPOS>BOND
     1     1     2    2
     2     1     3    1
     3     1     4    1
     4     4     5   ar
     5     5     6   ar
     6     6     7   ar
     7     7     8   ar
     8     8     9    1
     9     9    10    2
    10     9    11   am
    11    11    12    1
    12    12    13   ar
    13    13    14   ar
    14    14    15   ar
    15    15    16    1
    16    15    17   ar
    17    17    18   ar
    18    12    18   ar
    19     8    19   ar
    20     4    19   ar
    21     5    20    1
    22     7    21    1
    23    11    22    1
    24    13    23    1
    25    14    24    1
    26    16    25    1
    27    16    26    1
    28    17    27    1
    29    18    28    1
    30    19    29    1
