@<TRIPOS>MOLECULE
*****
 27 28 0 0 0
SMALL
GASTEIGER

@<TRIPOS>ATOM
      1 N2000           0.2968   4.9162    3.2656 n  1  UNL1    -0.7932
      2 C2000           9.483   4.3686    -2.2718 c  1  UNL1    0.2789
      3 O           9.2912   5.3898    -1.6124 o  1  UNL1    -0.4729
      4 C1           8.5389   3.2406    -2.0346 ca  1  UNL1    -0.0317
      5 C2           8.6592   2.0295    -2.7036 ca  1  UNL1    0.0643
      6 N           7.8156   0.9859    -2.5234 nb  1  UNL1    -0.3532
      7 C3           6.8042   1.1582    -1.6358 ca  1  UNL1    0.0987
      8 C4           6.5871   2.3325    -0.9203 ca  1  UNL1    -0.082
      9 C5           5.4361   2.3721    0.0172 c  1  UNL1    0.5187
      10 O1           5.015   1.2969    0.428 o  1  UNL1    -0.5201
      11 N1           4.9172   3.624    0.3113 n  1  UNL1    -0.696
      12 C6           3.7917   3.9005    1.1246 ca  1  UNL1    0.2861
      13 C7           3.0648   2.9282    1.8104 ca  1  UNL1    -0.1316
      14 C8           1.926   3.2748    2.5497 ca  1  UNL1    -0.1593
      15 C9           1.5194   4.6031    2.6631 ca  1  UNL1    0.2897
      16 C10           2.2299   5.5734    1.9569 ca  1  UNL1    -0.1571
      17 C11           3.3677   5.2315    1.2119 ca  1  UNL1    -0.1552
      18 C12           7.4842   3.3858    -1.1168 ca  1  UNL1    -0.0596
      19 H           9.4478   1.8276    -3.423 h4  1  UNL1    0.183022
      20 H1           6.1504   0.2954    -1.5195 h4  1  UNL1    0.198422
      21 H2           5.3106   4.4279    -0.1572 hn  1  UNL1    0.323322
      22 H3           3.3355   1.8782    1.7785 ha  1  UNL1    0.231822
      23 H4           1.3573   2.4834    3.0312 ha  1  UNL1    0.200222
      24 H5           0   4.2462    3.9685 hn  1  UNL1    0.338122
      25 H7           1.8974   6.608    1.9692 ha  1  UNL1    0.197322
      26 H8           3.8931   6.0228    0.6847 ha  1  UNL1    0.196422
      27 H9           7.3948   4.3095    -0.5509 ha  1  UNL1    0.206822
@<TRIPOS>BOND
     1    2    3    2
     2    2    4    1
     3    4    5    1
     4    5    6    ar
     5    6    7    ar
     6    7    8    ar
     7    8    9    ar
     8    9    10    1
     9    9    11    2
     10    11    12    1
     11    12    13    1
     12    13    14    ar
     13    14    15    ar
     14    15    1    ar
     15    15    16    1
     16    16    17    ar
     17    12    17    ar
     18    8    18    ar
     19    4    18    ar
     20    5    19    ar
     21    7    20    1
     22    11    21    1
     23    13    22    1
     24    14    23    1
     25    1    24    1
     26    16    25    1
     27    17    26    1
     28    18    27    1
@<TRIPOS>SUBSTRUCTURE
      1 ***         1 TEMP              0 ****  ****    0 ROOT
