@<TRIPOS>MOLECULE
*****
   19    19     1     0     0
SMALL
No Charge or Current Charge


@<TRIPOS>ATOM
      1 C            1.0680    -0.0850     0.0250 c3         1 UNL      -0.416100
      2 C1           2.5840    -0.0240    -0.0060 c3         1 UNL      -0.041000
      3 N            3.0870     0.0740    -1.3620 n          1 UNL      -0.460300
      4 C2           3.3090     1.3330    -2.0240 c3         1 UNL      -0.090900
      5 C3           3.4480     0.9430    -3.4830 c3         1 UNL      -0.221800
      6 C4           4.0100    -0.4730    -3.4340 c3         1 UNL      -0.318700
      7 C5           3.4530    -1.0120    -2.1410 c          1 UNL       0.475200
      8 O            3.3940    -2.1900    -1.8310 o          1 UNL      -0.541700
      9 H            0.7110    -0.1700     1.0560 hc         1 UNL       0.154900
     10 H1           0.6990    -0.9500    -0.5380 hc         1 UNL       0.180100
     11 H2           0.6270     0.8140    -0.4180 hc         1 UNL       0.163600
     12 H3           2.9890    -0.9330     0.4520 h1         1 UNL       0.145500
     13 H4           2.9520     0.8350     0.5660 h1         1 UNL       0.121600
     14 H5           4.2300     1.7740    -1.6290 h1         1 UNL       0.129000
     15 H6           2.4690     2.0140    -1.8580 h1         1 UNL       0.124300
     16 H7           4.0770     1.6330    -4.0500 hc         1 UNL       0.131500
     17 H8           2.4580     0.9240    -3.9560 hc         1 UNL       0.141600
     18 H9           5.1030    -0.4700    -3.3740 hc         1 UNL       0.160900
     19 H10          3.6780    -1.0700    -4.2870 hc         1 UNL       0.162200
@<TRIPOS>BOND
     1     1     2 1   
     2     2     3 1   
     3     3     4 1   
     4     4     5 1   
     5     5     6 1   
     6     6     7 1   
     7     3     7 1   
     8     7     8 2   
     9     1     9 1   
    10     1    10 1   
    11     1    11 1   
    12     2    12 1   
    13     2    13 1   
    14     4    14 1   
    15     4    15 1   
    16     5    16 1   
    17     5    17 1   
    18     6    18 1   
    19     6    19 1   
@<TRIPOS>SUBSTRUCTURE
     1 UNL         1 TEMP              0 ****  ****    0 ROOT
