@<TRIPOS>MOLECULE
*****
 19 19 0 0 0
SMALL
GASTEIGER

@<TRIPOS>ATOM
      1 C           1.0677   -0.0852    0.0253 C.3     1  UNL1       -0.4161
      2 C           2.5842   -0.0235   -0.0057 C.3     1  UNL1       -0.0410
      3 N           3.0871    0.0741   -1.3619 N.am    1  UNL1       -0.4603
      4 C           3.3093    1.3333   -2.0237 C.3     1  UNL1       -0.0909
      5 C           3.4478    0.9430   -3.4829 C.3     1  UNL1       -0.2218
      6 C           4.0100   -0.4730   -3.4344 C.3     1  UNL1       -0.3187
      7 C           3.4533   -1.0116   -2.1406 C.2     1  UNL1        0.4752
      8 O           3.3937   -2.1897   -1.8309 O.2     1  UNL1       -0.5417
      9 H           0.7107   -0.1702    1.0563 H       1  UNL1        0.1549
     10 H           0.6994   -0.9496   -0.5377 H       1  UNL1        0.1801
     11 H           0.6275    0.8138   -0.4180 H       1  UNL1        0.1636
     12 H           2.9891   -0.9326    0.4518 H       1  UNL1        0.1455
     13 H           2.9520    0.8354    0.5656 H       1  UNL1        0.1216
     14 H           4.2300    1.7739   -1.6286 H       1  UNL1        0.1290
     15 H           2.4691    2.0136   -1.8582 H       1  UNL1        0.1243
     16 H           4.0773    1.6335   -4.0504 H       1  UNL1        0.1315
     17 H           2.4578    0.9244   -3.9561 H       1  UNL1        0.1416
     18 H           5.1027   -0.4703   -3.3736 H       1  UNL1        0.1609
     19 H           3.6780   -1.0701   -4.2867 H       1  UNL1        0.1622
@<TRIPOS>BOND
     1     1     2    1
     2     2     3    1
     3     3     4    1
     4     4     5    1
     5     5     6    1
     6     6     7    1
     7     3     7   am
     8     7     8    2
     9     1     9    1
    10     1    10    1
    11     1    11    1
    12     2    12    1
    13     2    13    1
    14     4    14    1
    15     4    15    1
    16     5    16    1
    17     5    17    1
    18     6    18    1
    19     6    19    1
