@<TRIPOS>MOLECULE
*****
17 17 0 0 0
SMALL
GASTEIGER

@<TRIPOS>ATOM
1 C    2.2817   0.0488    0.0017 C.2  1  UNL1    0.571
2 O    1.1092   0.3103    -0.2079 O.2  1  UNL1    -0.4612
3 O    2.9831   0.5506    1.0357 O.3  1  UNL1    -0.5708
4 C    3.0501   -0.8203    -0.907 C.ar  1  UNL1    -0.0781
5 C    4.0473   -1.6698    -0.4495 C.ar  1  UNL1    0.1006
6 N    4.7646   -2.4818    -1.2603 N.ar  1  UNL1    -0.3176
7 C    4.4444   -2.4719    -2.5801 C.ar  1  UNL1    0.1212
8 C    3.426   -1.6958    -3.1216 C.ar  1  UNL1    -0.0803
9 C    3.1799   -1.7868    -4.5738 C.2  1  UNL1    0.5744
10 O    4.0576   -2.0937    -5.3613 O.2  1  UNL1    -0.4609
11 O    1.9101   -1.5355    -4.9463 O.3  1  UNL1    -0.5674
12 C    2.7243   -0.8416    -2.2684 C.ar  1  UNL1    -0.0276
13 H    3.9528   0.4449    1.0123 H  1  UNL1    0.3243
14 H    4.3068   -1.7464    0.6029 H  1  UNL1    0.169
15 H    5.0441   -3.134    -3.2028 H  1  UNL1    0.186
16 H    1.2471   -1.4673    -4.2343 H  1  UNL1    0.3283
17 H    1.9492   -0.176    -2.6407 H  1  UNL1    0.1889
@<TRIPOS>BOND
1    2   1   2
2    1   3   1
3    1   4   1
4    4   5   ar
5    5   6   ar
6    6   7   ar
7    7   8   ar
8    8   9   1
9    9   10   2
10    9   11   1
11    8   12   ar
12    4   12   ar
13    3   13   1
14    5   14   1
15    7   15   1
16    11   16   1
17    12   17   1
