@<TRIPOS>MOLECULE
*****
 27 28 0 0 0
SMALL
GASTEIGER

@<TRIPOS>ATOM
      1 N2000           0.4245   4.999    3.124 n  1  UNL1    -0.7929
      2 C2000           9.6376   4.4177    -2.3861 c  1  UNL1    0.2785
      3 O           9.4555   5.4355    -1.7172 o  1  UNL1    -0.4727
      4 C1           8.6811   3.2995    -2.1596 ca  1  UNL1    -0.0315
      5 C2           8.7883   2.0949    -2.8428 ca  1  UNL1    0.0644
      6 N           7.9288   1.0619    -2.6802 nb  1  UNL1    -0.3533
      7 C3           6.9143   1.2391    -1.7965 ca  1  UNL1    0.0985
      8 C4           6.711   2.4064    -1.0657 ca  1  UNL1    -0.0816
      9 C5           5.5542   2.4505    -0.1333 c  1  UNL1    0.5188
      10 O1           5.1194   1.3739    0.2615 o  1  UNL1    -0.52
      11 N1           5.0494   3.7027    0.1751 n  1  UNL1    -0.6959
      12 C6           3.9236   3.9816    0.9901 ca  1  UNL1    0.2852
      13 C7           3.185   3.0072    1.6609 ca  1  UNL1    -0.1311
      14 C8           2.0456   3.3543    2.3993 ca  1  UNL1    -0.1596
      15 C9           1.6499   4.6835    2.5288 ca  1  UNL1    0.29
      16 C10           2.3751   5.6578    1.8425 ca  1  UNL1    -0.1572
      17 C11           3.5126   5.3151    1.0964 ca  1  UNL1    -0.1551
      18 C12           7.6252   3.4477    -1.2426 ca  1  UNL1    -0.0597
      19 H           9.5775   1.8912    -3.5614 h4  1  UNL1    0.183033
      20 H1           6.2459   0.3853    -1.6975 h4  1  UNL1    0.198433
      21 H2           5.4513   4.5091    -0.2828 hn  1  UNL1    0.323233
      22 H3           3.4467   1.9548    1.6171 ha  1  UNL1    0.231733
      23 H4           1.468   2.5612    2.8682 ha  1  UNL1    0.200133
      24 H5           0.1096   4.3187    3.8097 hn  1  UNL1    0.337933
      25 H7           2.0546   6.6954    1.8709 ha  1  UNL1    0.197333
      26 H8           4.0479   6.109    0.5832 ha  1  UNL1    0.196433
      27 H9           7.5478   4.364    -0.6637 ha  1  UNL1    0.206933
@<TRIPOS>BOND
     1    2    3    2
     2    2    4    1
     3    4    5    1
     4    5    6    ar
     5    6    7    ar
     6    7    8    ar
     7    8    9    ar
     8    9    10    1
     9    9    11    2
     10    11    12    1
     11    12    13    1
     12    13    14    ar
     13    14    15    ar
     14    15    1    ar
     15    15    16    1
     16    16    17    ar
     17    12    17    ar
     18    8    18    ar
     19    4    18    ar
     20    5    19    ar
     21    7    20    1
     22    11    21    1
     23    13    22    1
     24    14    23    1
     25    1    24    1
     26    16    25    1
     27    17    26    1
     28    18    27    1
@<TRIPOS>SUBSTRUCTURE
      1 ***         1 TEMP              0 ****  ****    0 ROOT
