@<TRIPOS>MOLECULE
*****
 29 30 0 0 0
SMALL
GASTEIGER

@<TRIPOS>ATOM
      1 C           9.5828    4.4177   -2.3861 C.2     1  UNL1        0.2785
      2 O           9.4007    5.4355   -1.7172 O.2     1  UNL1       -0.4727
      3 CL         10.8643    4.2633   -3.5639 Cl      1  UNL1       -0.0187
      4 C           8.6263    3.2995   -2.1596 C.ar    1  UNL1       -0.0315
      5 C           8.7335    2.0949   -2.8428 C.ar    1  UNL1        0.0644
      6 N           7.8740    1.0619   -2.6802 N.ar    1  UNL1       -0.3533
      7 C           6.8595    1.2391   -1.7965 C.ar    1  UNL1        0.0985
      8 C           6.6562    2.4064   -1.0657 C.ar    1  UNL1       -0.0816
      9 C           5.4994    2.4505   -0.1333 C.2     1  UNL1        0.5188
     10 O           5.0646    1.3739    0.2615 O.2     1  UNL1       -0.5200
     11 N           4.9946    3.7027    0.1751 N.am    1  UNL1       -0.6959
     12 C           3.8688    3.9816    0.9901 C.ar    1  UNL1        0.2852
     13 C           3.1302    3.0072    1.6609 C.ar    1  UNL1       -0.1311
     14 C           1.9908    3.3543    2.3993 C.ar    1  UNL1       -0.1596
     15 C           1.5951    4.6835    2.5288 C.ar    1  UNL1        0.2900
     16 N           0.3697    4.9990    3.1240 N.pl3   1  UNL1       -0.7929
     17 C           2.3203    5.6578    1.8425 C.ar    1  UNL1       -0.1572
     18 C           3.4578    5.3151    1.0964 C.ar    1  UNL1       -0.1551
     19 C           7.5704    3.4477   -1.2426 C.ar    1  UNL1       -0.0597
     20 H           9.5227    1.8912   -3.5614 H       1  UNL1        0.1511
     21 H           6.1911    0.3853   -1.6975 H       1  UNL1        0.1665
     22 H           5.3965    4.5091   -0.2828 H       1  UNL1        0.2913
     23 H           3.3919    1.9548    1.6171 H       1  UNL1        0.1998
     24 H           1.4132    2.5612    2.8682 H       1  UNL1        0.1682
     25 H           0.0548    4.3187    3.8097 H       1  UNL1        0.3060
     26 H           0.3025    5.9526    3.4639 H       1  UNL1        0.3061
     27 H           1.9998    6.6954    1.8709 H       1  UNL1        0.1654
     28 H           3.9931    6.1090    0.5832 H       1  UNL1        0.1645
     29 H           7.4930    4.3640   -0.6637 H       1  UNL1        0.1750
@<TRIPOS>BOND
     1     1     2    2
     2     1     3    1
     3     1     4    1
     4     4     5   ar
     5     5     6   ar
     6     6     7   ar
     7     7     8   ar
     8     8     9    1
     9     9    10    2
    10     9    11   am
    11    11    12    1
    12    12    13   ar
    13    13    14   ar
    14    14    15   ar
    15    15    16    1
    16    15    17   ar
    17    17    18   ar
    18    12    18   ar
    19     8    19   ar
    20     4    19   ar
    21     5    20    1
    22     7    21    1
    23    11    22    1
    24    13    23    1
    25    14    24    1
    26    16    25    1
    27    16    26    1
    28    17    27    1
    29    18    28    1
    30    19    29    1
