@<TRIPOS>MOLECULE
*****
   29    30     1     0     0
SMALL
No Charge or Current Charge


@<TRIPOS>ATOM
      1 C            9.5830     4.4180    -2.3860 c          1 UNL       0.278500
      2 O            9.4010     5.4360    -1.7170 o          1 UNL      -0.472700
      3 Cl          10.8640     4.2630    -3.5640 cl         1 UNL      -0.018700
      4 C1           8.6260     3.3000    -2.1600 ca         1 UNL      -0.031500
      5 C2           8.7330     2.0950    -2.8430 ca         1 UNL       0.064400
      6 N            7.8740     1.0620    -2.6800 nb         1 UNL      -0.353300
      7 C3           6.8590     1.2390    -1.7960 ca         1 UNL       0.098500
      8 C4           6.6560     2.4060    -1.0660 ca         1 UNL      -0.081600
      9 C5           5.4990     2.4500    -0.1330 c          1 UNL       0.518800
     10 O1           5.0650     1.3740     0.2620 o          1 UNL      -0.520000
     11 N1           4.9950     3.7030     0.1750 n          1 UNL      -0.695900
     12 C6           3.8690     3.9820     0.9900 ca         1 UNL       0.285200
     13 C7           3.1300     3.0070     1.6610 ca         1 UNL      -0.131100
     14 C8           1.9910     3.3540     2.3990 ca         1 UNL      -0.159600
     15 C9           1.5950     4.6840     2.5290 ca         1 UNL       0.290000
     16 N2           0.3700     4.9990     3.1240 nh         1 UNL      -0.792900
     17 C10          2.3200     5.6580     1.8430 ca         1 UNL      -0.157200
     18 C11          3.4580     5.3150     1.0960 ca         1 UNL      -0.155100
     19 C12          7.5700     3.4480    -1.2430 ca         1 UNL      -0.059700
     20 H            9.5230     1.8910    -3.5610 h4         1 UNL       0.151100
     21 H1           6.1910     0.3850    -1.6980 h4         1 UNL       0.166500
     22 H2           5.3960     4.5090    -0.2830 hn         1 UNL       0.291300
     23 H3           3.3920     1.9550     1.6170 ha         1 UNL       0.199800
     24 H4           1.4130     2.5610     2.8680 ha         1 UNL       0.168200
     25 H5           0.0550     4.3190     3.8100 hn         1 UNL       0.306000
     26 H6           0.3020     5.9530     3.4640 hn         1 UNL       0.306100
     27 H7           2.0000     6.6950     1.8710 ha         1 UNL       0.165400
     28 H8           3.9930     6.1090     0.5830 ha         1 UNL       0.164500
     29 H9           7.4930     4.3640    -0.6640 ha         1 UNL       0.175000
@<TRIPOS>BOND
     1     1     2 2   
     2     1     3 1   
     3     1     4 1   
     4     4     5 ar  
     5     5     6 ar  
     6     6     7 ar  
     7     7     8 ar  
     8     8     9 1   
     9     9    10 2   
    10     9    11 1   
    11    11    12 1   
    12    12    13 ar  
    13    13    14 ar  
    14    14    15 ar  
    15    15    16 1   
    16    15    17 ar  
    17    17    18 ar  
    18    12    18 ar  
    19     8    19 ar  
    20     4    19 ar  
    21     5    20 1   
    22     7    21 1   
    23    11    22 1   
    24    13    23 1   
    25    14    24 1   
    26    16    25 1   
    27    16    26 1   
    28    17    27 1   
    29    18    28 1   
    30    19    29 1   
@<TRIPOS>SUBSTRUCTURE
     1 UNL         1 TEMP              0 ****  ****    0 ROOT
